5
Frame
C -1.763333 1.261138 0.914528
N -0.852929 0.351744 0.827696
C 0.309146 0.385173 0.033826
N 0.739528 -0.959375 -0.389029
C 1.567329 -1.039308 -1.385095
5
Frame
C -1.762109 1.262843 0.911182
N -0.854375 0.349782 0.827435
C 0.314142 0.382782 0.043797
N 0.735260 -0.960536 -0.393882
C 1.567296 -1.035354 -1.386171
5
Frame
C -1.760514 1.265153 0.906838
N -0.854971 0.348272 0.828958
C 0.319318 0.379967 0.053081
N 0.730774 -0.962080 -0.398090
C 1.566045 -1.031613 -1.387980
5
Frame
C -1.758950 1.266502 0.902056
N -0.855068 0.347264 0.830144
C 0.324143 0.377796 0.063005
N 0.726484 -0.963510 -0.402199
C 1.564383 -1.028141 -1.389832
5
Frame
C -1.757808 1.267732 0.896742
N -0.854783 0.346502 0.832291
C 0.329487 0.375634 0.072476
N 0.722459 -0.964692 -0.405963
C 1.561910 -1.025066 -1.392072
5
Frame
C -1.756606 1.268066 0.890574
N -0.853932 0.346324 0.835196
C 0.334702 0.373211 0.081342
N 0.718206 -0.965349 -0.409147
C 1.559088 -1.021958 -1.394281
5
Frame
C -1.756221 1.267510 0.884623
N -0.852301 0.346854 0.838533
C 0.339908 0.370847 0.090080
N 0.714700 -0.965861 -0.412371
C 1.555515 -1.018901 -1.397035
5
Frame
C -1.755402 1.266602 0.878090
N -0.850694 0.346731 0.842419
C 0.344735 0.368820 0.098342
N 0.711157 -0.966265 -0.415496
C 1.551916 -1.015314 -1.399443
5
Frame
C -1.755100 1.265319 0.871821
N -0.848809 0.347365 0.846221
C 0.349605 0.367092 0.106921
N 0.707671 -0.966766 -0.418587
C 1.548436 -1.012336 -1.402434
5
Frame
C -1.754668 1.263708 0.865371
N -0.846847 0.347883 0.850336
C 0.354391 0.364958 0.115019
N 0.704013 -0.966790 -0.421809
C 1.544984 -1.009012 -1.404969
5
Frame
C -1.753992 1.261789 0.858754
N -0.844856 0.348607 0.854689
C 0.359194 0.362864 0.122747
N 0.700217 -0.966685 -0.424558
C 1.541358 -1.005769 -1.407700
5
Frame
C -1.753802 1.259896 0.852045
N -0.842666 0.349450 0.859002
C 0.364044 0.360890 0.130570
N 0.696525 -0.966664 -0.427573
C 1.537858 -1.002719 -1.410150
5
Frame
C -1.753457 1.257447 0.845127
N -0.840485 0.350673 0.863653
C 0.368630 0.358977 0.138056
N 0.692799 -0.966630 -0.430382
C 1.534496 -0.999572 -1.412614
5
Frame
C -1.753158 1.254683 0.838220
N -0.837968 0.352355 0.868342
C 0.373259 0.356775 0.145156
N 0.688904 -0.966192 -0.432861
C 1.530963 -0.996697 -1.415082
5
Frame
C -1.753086 1.251526 0.831204
N -0.835241 0.353920 0.873035
C 0.377986 0.355045 0.152067
N 0.685238 -0.965690 -0.435241
C 1.527117 -0.993853 -1.417366
5
Frame
C -1.753114 1.248318 0.824088
N -0.832395 0.355549 0.877720
C 0.382671 0.353184 0.158845
N 0.681384 -0.965147 -0.437425
C 1.523483 -0.990941 -1.419610
5
Frame
C -1.753148 1.244925 0.816778
N -0.829550 0.357639 0.882629
C 0.387165 0.351161 0.165367
N 0.677705 -0.964535 -0.439467
C 1.519860 -0.988213 -1.421770
5
Frame
C -1.753226 1.241351 0.809387
N -0.826655 0.359778 0.887554
C 0.391697 0.349287 0.171740
N 0.673836 -0.963798 -0.441466
C 1.516376 -0.985627 -1.423773
5
Frame
C -1.753279 1.237790 0.802126
N -0.823447 0.361669 0.892375
C 0.396216 0.347503 0.178068
N 0.669877 -0.963062 -0.443590
C 1.512660 -0.982894 -1.425632
5
Frame
C -1.753387 1.233561 0.794817
N -0.820206 0.364227 0.897463
C 0.400516 0.345656 0.183857
N 0.665945 -0.962056 -0.445303
C 1.509145 -0.980373 -1.427590
5
Frame
C -1.753587 1.229503 0.787602
N -0.817033 0.366753 0.902459
C 0.405106 0.343942 0.189789
N 0.661823 -0.961141 -0.447308
C 1.505695 -0.978039 -1.429398
5
Frame
C -1.753984 1.225247 0.780237
N -0.813595 0.369351 0.907418
C 0.409399 0.341923 0.195514
N 0.657858 -0.959914 -0.449231
C 1.502307 -0.975580 -1.430897
5
Frame
C -1.754753 1.220620 0.773023
N -0.809924 0.372321 0.912602
C 0.413702 0.340142 0.200847
N 0.654014 -0.958618 -0.451068
C 1.498932 -0.973430 -1.432463
5
Frame
C -1.755190 1.215992 0.765736
N -0.806315 0.375150 0.917694
C 0.418086 0.338597 0.206141
N 0.649909 -0.957545 -0.452736
C 1.495465 -0.971152 -1.433997
5
Frame
C -1.755675 1.211276 0.758462
N -0.802793 0.378074 0.922633
C 0.422346 0.336752 0.211611
N 0.645982 -0.956252 -0.454556
C 1.492078 -0.968804 -1.435420
5
Frame
C -1.756136 1.206349 0.751206
N -0.799504 0.381369 0.927673
C 0.426542 0.334869 0.216981
N 0.641817 -0.954841 -0.456312
C 1.489208 -0.966690 -1.436934
5
Frame
C -1.756930 1.201084 0.743980
N -0.795708 0.384655 0.933024
C 0.430635 0.333470 0.221719
N 0.638183 -0.953659 -0.458034
C 1.485738 -0.964477 -1.438188
5
Frame
C -1.757435 1.195524 0.736761
N -0.792122 0.388498 0.938334
C 0.434556 0.332091 0.226354
N 0.634348 -0.952253 -0.459466
C 1.482564 -0.962765 -1.439605
5
Frame
C -1.758016 1.189875 0.729537
N -0.788749 0.392101 0.943349
C 0.438549 0.330802 0.231431
N 0.630492 -0.951027 -0.461297
C 1.479625 -0.960626 -1.440776
5
Frame
C -1.758406 1.183492 0.722454
N -0.785552 0.396680 0.948682
C 0.442337 0.329828 0.235485
N 0.626785 -0.949881 -0.462711
C 1.476736 -0.958966 -1.441800
5
Frame
C -1.758931 1.176986 0.715430
N -0.781832 0.400908 0.953846
C 0.445855 0.329047 0.239687
N 0.623437 -0.948668 -0.464134
C 1.473371 -0.957087 -1.442858
5
Frame
C -1.759543 1.170570 0.708459
N -0.778221 0.404902 0.958904
C 0.449528 0.328247 0.244255
N 0.619928 -0.947335 -0.465870
C 1.470216 -0.955153 -1.443928
5
Frame
C -1.760066 1.164158 0.701466
N -0.774199 0.408746 0.963582
C 0.453022 0.327366 0.248902
N 0.616516 -0.945970 -0.467166
C 1.466636 -0.953026 -1.445108
5
Frame
C -1.760733 1.157163 0.694753
N -0.770238 0.413203 0.968601
C 0.456290 0.326969 0.252931
N 0.613424 -0.944649 -0.468064
C 1.463172 -0.951376 -1.446706
5
Frame
C -1.761776 1.150199 0.688225
N -0.765879 0.417329 0.973130
C 0.459821 0.326547 0.257177
N 0.610280 -0.942789 -0.468950
C 1.459472 -0.949930 -1.448234
5
Frame
C -1.762442 1.143668 0.681644
N -0.761588 0.421485 0.977811
C 0.463466 0.325642 0.261457
N 0.606736 -0.941143 -0.469963
C 1.455756 -0.948259 -1.449753
5
Frame
C -1.762965 1.136711 0.675516
N -0.756792 0.425615 0.982225
C 0.466754 0.325238 0.265509
N 0.603526 -0.939792 -0.470647
C 1.451408 -0.946343 -1.451566
5
Frame
C -1.763637 1.129816 0.669490
N -0.751990 0.429601 0.986735
C 0.470238 0.324964 0.269633
N 0.600232 -0.938218 -0.471588
C 1.447097 -0.944708 -1.453397
5
Frame
C -1.763957 1.123057 0.663194
N -0.747447 0.433444 0.991090
C 0.473630 0.324547 0.274119
N 0.597107 -0.936801 -0.472385
C 1.442608 -0.942763 -1.455323
5
Frame
C -1.764364 1.116537 0.657106
N -0.742854 0.437681 0.995427
C 0.477245 0.323398 0.278509
N 0.593255 -0.935139 -0.473583
C 1.438663 -0.940975 -1.456933
5
Frame
C -1.764580 1.109801 0.651272
N -0.737974 0.441617 0.999440
C 0.480778 0.322642 0.282814
N 0.589756 -0.933257 -0.474221
C 1.433973 -0.939274 -1.458954
5
Frame
C -1.764537 1.103573 0.645193
N -0.733420 0.445047 1.003485
C 0.484587 0.321498 0.287598
N 0.586034 -0.931395 -0.475307
C 1.429285 -0.937167 -1.460798
5
Frame
C -1.764333 1.097507 0.639229
N -0.729160 0.448542 1.007545
C 0.488342 0.319993 0.292764
N 0.582595 -0.929452 -0.476578
C 1.424515 -0.935027 -1.462985
5
Frame
C -1.763907 1.091573 0.633614
N -0.724678 0.451952 1.011261
C 0.492353 0.318283 0.297738
N 0.578593 -0.927576 -0.477600
C 1.419600 -0.932650 -1.465231
5
Frame
C -1.763232 1.085733 0.627822
N -0.720643 0.455050 1.015209
C 0.496194 0.316512 0.303090
N 0.574981 -0.925613 -0.478844
C 1.414655 -0.930093 -1.467699
5
Frame
C -1.762302 1.080097 0.622225
N -0.716367 0.458097 1.018969
C 0.500000 0.314812 0.308406
N 0.571216 -0.924114 -0.479773
C 1.409397 -0.927303 -1.470461
5
Frame
C -1.760920 1.074101 0.617077
N -0.712344 0.461178 1.022364
C 0.503590 0.312727 0.313710
N 0.567802 -0.922014 -0.480700
C 1.403789 -0.924428 -1.473301
5
Frame
C -1.759449 1.068057 0.612182
N -0.708538 0.464450 1.025796
C 0.507165 0.310946 0.319043
N 0.564945 -0.920523 -0.481471
C 1.397755 -0.921391 -1.476620
5
Frame
C -1.757832 1.062610 0.607731
N -0.704724 0.467153 1.029243
C 0.511168 0.308783 0.324325
N 0.561825 -0.919193 -0.482553
C 1.391376 -0.917886 -1.480018
5
Frame
C -1.755756 1.057379 0.603259
N -0.701343 0.469670 1.032650
C 0.515103 0.306472 0.329730
N 0.558763 -0.917765 -0.483231
C 1.384937 -0.914378 -1.483880
5
Frame
C -1.753540 1.052083 0.599722
N -0.697590 0.472128 1.035966
C 0.518959 0.304327 0.334584
N 0.556175 -0.916365 -0.483979
C 1.377560 -0.910950 -1.487959
5
Frame
C -1.751393 1.046722 0.596742
N -0.693988 0.474690 1.039420
C 0.522555 0.302644 0.339068
N 0.554462 -0.915619 -0.484094
C 1.369728 -0.907434 -1.492944
5
Frame
C -1.749420 1.041797 0.593840
N -0.690497 0.476254 1.042527
C 0.526444 0.300935 0.343764
N 0.552803 -0.914663 -0.483722
C 1.361785 -0.903597 -1.498334
5
Frame
C -1.746821 1.037758 0.590426
N -0.687655 0.477841 1.045436
C 0.530028 0.298151 0.348904
N 0.551767 -0.914084 -0.483684
C 1.353520 -0.899255 -1.503052
5
Frame
C -1.743847 1.034409 0.586460
N -0.685712 0.478740 1.047837
C 0.533746 0.295055 0.354821
N 0.550400 -0.913713 -0.483143
C 1.345935 -0.894435 -1.507952
5
Frame
C -1.740715 1.031445 0.581615
N -0.684136 0.479168 1.050867
C 0.536954 0.291669 0.361074
N 0.549280 -0.913270 -0.483173
C 1.338829 -0.889339 -1.512304
5
Frame
C -1.737640 1.028716 0.576626
N -0.683322 0.479026 1.052572
C 0.540092 0.288016 0.367471
N 0.549194 -0.912915 -0.482307
C 1.331572 -0.883541 -1.516171
5
Frame
C -1.734290 1.027393 0.570975
N -0.683317 0.477830 1.053756
C 0.543351 0.283942 0.374744
N 0.548321 -0.912635 -0.481766
C 1.325526 -0.877566 -1.519394
5
Frame
C -1.731071 1.025666 0.565112
N -0.683700 0.477042 1.055197
C 0.545829 0.279725 0.382018
N 0.548857 -0.912050 -0.481067
C 1.319387 -0.871757 -1.522808
5
Frame
C -1.728004 1.024468 0.558883
N -0.684010 0.475904 1.056215
C 0.548479 0.275565 0.389160
N 0.549015 -0.912134 -0.479864
C 1.313546 -0.865467 -1.525818
5
Frame
C -1.724891 1.023073 0.552128
N -0.684633 0.474692 1.056973
C 0.551170 0.271600 0.396537
N 0.549358 -0.911545 -0.478605
C 1.307756 -0.859755 -1.528337
5
Frame
C -1.721586 1.021371 0.545166
N -0.685046 0.473998 1.057845
C 0.553307 0.267767 0.403474
N 0.550254 -0.911382 -0.477030
C 1.301567 -0.853954 -1.530639
5
Frame
C -1.718485 1.019636 0.538443
N -0.685479 0.472870 1.058394
C 0.555696 0.264555 0.410473
N 0.551240 -0.911403 -0.474950
C 1.295259 -0.848112 -1.533434
5
Frame
C -1.715671 1.017662 0.531544
N -0.685730 0.472303 1.058846
C 0.558397 0.261341 0.417029
N 0.552386 -0.911561 -0.472405
C 1.288587 -0.842438 -1.535983
5
Frame
C -1.712435 1.015987 0.524613
N -0.686165 0.471740 1.059086
C 0.560719 0.258010 0.423727
N 0.553778 -0.911675 -0.470015
C 1.281826 -0.836982 -1.538280
5
Frame
C -1.709377 1.014630 0.517759
N -0.686706 0.470930 1.059364
C 0.562907 0.254660 0.430403
N 0.555619 -0.911580 -0.467257
C 1.275030 -0.831780 -1.541034
5
Frame
C -1.706300 1.013097 0.510812
N -0.687054 0.470326 1.059368
C 0.565152 0.251826 0.436892
N 0.557446 -0.912086 -0.464258
C 1.267980 -0.826519 -1.543470
5
Frame
C -1.703090 1.012078 0.503646
N -0.687409 0.469172 1.059176
C 0.567338 0.248981 0.443236
N 0.559251 -0.912449 -0.461120
C 1.260895 -0.821344 -1.545494
5
Frame
C -1.699985 1.010810 0.496558
N -0.688019 0.468622 1.058781
C 0.569529 0.245976 0.449571
N 0.561350 -0.912864 -0.457735
C 1.253869 -0.816306 -1.547626
5
Frame
C -1.696897 1.009929 0.489544
N -0.688619 0.467782 1.058250
C 0.571634 0.243330 0.455753
N 0.563903 -0.913590 -0.454305
C 1.246490 -0.811405 -1.549593
5
Frame
C -1.693927 1.008919 0.482285
N -0.688858 0.467233 1.057935
C 0.573615 0.240772 0.461638
N 0.566569 -0.914218 -0.450609
C 1.238881 -0.806843 -1.551506
5
Frame
C -1.690929 1.007918 0.475373
N -0.689163 0.466680 1.057202
C 0.575499 0.238374 0.467164
N 0.569688 -0.915018 -0.446615
C 1.230963 -0.802268 -1.553282
5
Frame
C -1.687688 1.007115 0.468402
N -0.689578 0.465928 1.056443
C 0.577450 0.236294 0.472637
N 0.572727 -0.915906 -0.442601
C 1.222920 -0.797920 -1.554940
5
Frame
C -1.684697 1.006480 0.461549
N -0.690075 0.465042 1.055492
C 0.579410 0.234017 0.478333
N 0.575953 -0.916888 -0.438812
C 1.215024 -0.793302 -1.556523
5
Frame
C -1.681879 1.005843 0.454738
N -0.690451 0.464318 1.054591
C 0.581335 0.231937 0.483675
N 0.579409 -0.917975 -0.434504
C 1.206988 -0.788922 -1.558367
5
Frame
C -1.679094 1.005255 0.448173
N -0.690724 0.463501 1.053385
C 0.583249 0.229979 0.488930
N 0.583083 -0.919116 -0.430292
C 1.198683 -0.784560 -1.559974
5
Frame
C -1.676237 1.004710 0.441619
N -0.691167 0.462396 1.052114
C 0.585176 0.228092 0.494112
N 0.586911 -0.919998 -0.426143
C 1.190312 -0.780278 -1.561390
5
Frame
C -1.673318 1.003944 0.435148
N -0.691568 0.461638 1.050909
C 0.587013 0.226442 0.499169
N 0.590905 -0.921140 -0.422020
C 1.181765 -0.776098 -1.562805
5
Frame
C -1.670622 1.003473 0.428777
N -0.691923 0.460515 1.049618
C 0.588756 0.224826 0.504163
N 0.595196 -0.922116 -0.417740
C 1.173199 -0.772034 -1.564333
5
Frame
C -1.667781 1.002828 0.422444
N -0.692368 0.459512 1.048059
C 0.590425 0.223338 0.508865
N 0.599646 -0.923062 -0.413389
C 1.164496 -0.768066 -1.565412
5
Frame
C -1.664774 1.002448 0.416197
N -0.692724 0.458284 1.046372
C 0.592030 0.221729 0.513689
N 0.604017 -0.923823 -0.409235
C 1.155681 -0.764197 -1.566374
5
Frame
C -1.661866 1.002223 0.410160
N -0.693115 0.456899 1.044648
C 0.593672 0.220387 0.518244
N 0.608668 -0.924642 -0.404903
C 1.146695 -0.760530 -1.567423
5
Frame
C -1.658952 1.001733 0.404098
N -0.693483 0.455417 1.042979
C 0.595247 0.219257 0.522818
N 0.613377 -0.925579 -0.400881
C 1.137694 -0.756595 -1.568215
5
Frame
C -1.656177 1.001360 0.398234
N -0.693649 0.454071 1.040971
C 0.596901 0.217840 0.527115
N 0.618121 -0.926289 -0.396557
C 1.128524 -0.752845 -1.568895
5
Frame
C -1.653117 1.001203 0.392354
N -0.694142 0.452424 1.039234
C 0.598325 0.216807 0.531510
N 0.623110 -0.927152 -0.392499
C 1.119383 -0.749237 -1.569663
5
Frame
C -1.650137 1.000919 0.386636
N -0.694452 0.450709 1.037294
C 0.599897 0.215632 0.535872
N 0.627998 -0.927613 -0.388403
C 1.110093 -0.745694 -1.570401
5
Frame
C -1.647141 1.000738 0.381163
N -0.694915 0.448918 1.035170
C 0.601258 0.214623 0.540179
N 0.633295 -0.928181 -0.384485
C 1.100751 -0.742231 -1.570966
5
Frame
C -1.644173 1.000579 0.375733
N -0.695219 0.446881 1.032909
C 0.602628 0.213548 0.544431
N 0.638553 -0.928470 -0.380745
C 1.091316 -0.738757 -1.571207
5
Frame
C -1.641303 1.000589 0.370266
N -0.695615 0.444948 1.030773
C 0.604128 0.212456 0.548738
N 0.643899 -0.928948 -0.377121
C 1.081861 -0.735348 -1.571478
5
Frame
C -1.638311 1.000605 0.364946
N -0.696114 0.442887 1.028455
C 0.605413 0.211471 0.552892
N 0.649449 -0.929223 -0.373415
C 1.072397 -0.732117 -1.571643
5
Frame
C -1.635491 1.000796 0.359817
N -0.696596 0.440779 1.026052
C 0.606960 0.210445 0.556963
N 0.655013 -0.929600 -0.369748
C 1.062818 -0.728872 -1.571794
5
Frame
C -1.632406 1.000687 0.354887
N -0.697001 0.438746 1.023665
C 0.608078 0.209593 0.560989
N 0.660744 -0.929893 -0.366128
C 1.053164 -0.725662 -1.572077
5
Frame
C -1.629433 1.000810 0.349980
N -0.697587 0.436613 1.021133
C 0.609266 0.208642 0.565117
N 0.666666 -0.930050 -0.362785
C 1.043548 -0.722617 -1.572056
5
Frame
C -1.626431 1.000809 0.345067
N -0.698011 0.434660 1.018571
C 0.610395 0.207747 0.568926
N 0.672594 -0.930189 -0.359241
C 1.033796 -0.719702 -1.571884
5
Frame
C -1.623565 1.001001 0.340240
N -0.698378 0.432412 1.016125
C 0.611648 0.206908 0.572671
N 0.678608 -0.930265 -0.356018
C 1.023919 -0.716809 -1.571533
5
Frame
C -1.620696 1.001291 0.335546
N -0.698892 0.430247 1.013596
C 0.612877 0.205994 0.576570
N 0.684750 -0.930308 -0.352805
C 1.014085 -0.714048 -1.571380
5
Frame
C -1.617917 1.001608 0.330986
N -0.699341 0.427999 1.010962
C 0.614151 0.205128 0.580322
N 0.690956 -0.930327 -0.349658
C 1.004172 -0.711296 -1.571044
5
Frame
C -1.615092 1.001907 0.326351
N -0.699788 0.425772 1.008383
C 0.615490 0.204225 0.584069
N 0.697060 -0.930323 -0.346455
C 0.994252 -0.708542 -1.570744
5
Frame
C -1.612284 1.002384 0.321903
N -0.700357 0.423284 1.005849
C 0.616727 0.203375 0.587776
N 0.703434 -0.930157 -0.343606
C 0.984306 -0.705913 -1.570279
5
Frame
C -1.609449 1.002899 0.317398
N -0.700994 0.420999 1.003354
C 0.617970 0.202343 0.591548
N 0.709821 -0.929927 -0.340663
C 0.974385 -0.703408 -1.569958
5
Frame
C -1.606635 1.003169 0.313056
N -0.701485 0.418736 1.000707
C 0.619055 0.201480 0.595000
N 0.716332 -0.929758 -0.337703
C 0.964374 -0.700794 -1.569351
5
Frame
C -1.603885 1.003581 0.308849
N -0.701933 0.416582 0.998122
C 0.620201 0.200488 0.598464
N 0.722914 -0.929571 -0.334810
C 0.954259 -0.698318 -1.568885
5
Frame
C -1.600996 1.003945 0.304560
N -0.702469 0.414159 0.995465
C 0.621341 0.199623 0.602033
N 0.729379 -0.929173 -0.332074
C 0.944218 -0.695864 -1.568214
5
Frame
C -1.598104 1.004332 0.300271
N -0.703032 0.411914 0.992887
C 0.622245 0.198763 0.605688
N 0.736074 -0.928679 -0.329328
C 0.934203 -0.693710 -1.567726
5
Frame
C -1.595416 1.004629 0.295969
N -0.703571 0.409566 0.990429
C 0.623580 0.198135 0.609279
N 0.742657 -0.928295 -0.326647
C 0.924053 -0.691489 -1.567215
5
Frame
C -1.592523 1.004966 0.291574
N -0.704013 0.407185 0.987989
C 0.624605 0.197483 0.612659
N 0.749221 -0.927845 -0.323773
C 0.913930 -0.689318 -1.566610
5
Frame
C -1.589615 1.005625 0.287538
N -0.704769 0.404774 0.985202
C 0.625602 0.196538 0.616173
N 0.755988 -0.927119 -0.320968
C 0.903930 -0.687417 -1.566080
5
Frame
C -1.586752 1.006186 0.283302
N -0.705412 0.402440 0.982659
C 0.626561 0.195531 0.619898
N 0.762734 -0.926431 -0.318387
C 0.893928 -0.685397 -1.565586
5
Frame
C -1.583762 1.006907 0.279169
N -0.706170 0.399929 0.979756
C 0.627759 0.194696 0.623543
N 0.769222 -0.925722 -0.315542
C 0.883931 -0.683552 -1.565020
5
Frame
C -1.580901 1.007600 0.275032
N -0.706795 0.397566 0.977276
C 0.628765 0.193697 0.626955
N 0.776023 -0.924940 -0.312851
C 0.873812 -0.681736 -1.564489
5
Frame
C -1.577909 1.008251 0.270904
N -0.707430 0.395032 0.974739
C 0.629543 0.192821 0.630584
N 0.782830 -0.924046 -0.310320
C 0.863793 -0.679943 -1.563968
5
Frame
C -1.575037 1.008994 0.266928
N -0.707978 0.392565 0.972128
C 0.630566 0.191777 0.633916
N 0.789583 -0.923286 -0.307737
C 0.853618 -0.678010 -1.563283
5
Frame
C -1.572077 1.009833 0.262931
N -0.708542 0.390019 0.969485
C 0.631370 0.190755 0.637370
N 0.796401 -0.922406 -0.305302
C 0.843526 -0.676230 -1.562518
5
Frame
C -1.569099 1.010762 0.259209
N -0.709378 0.387479 0.966806
C 0.632390 0.189577 0.640867
N 0.803259 -0.921534 -0.302904
C 0.833435 -0.674386 -1.561998
5
Frame
C -1.565966 1.011696 0.255475
N -0.710174 0.384677 0.964267
C 0.633047 0.188440 0.644343
N 0.810212 -0.920450 -0.300766
C 0.823419 -0.672541 -1.561325
5
Frame
C -1.563109 1.012766 0.251566
N -0.710890 0.382022 0.961500
C 0.634000 0.186993 0.647929
N 0.817016 -0.919410 -0.298576
C 0.813456 -0.670620 -1.560414
5
Frame
C -1.560229 1.013834 0.247891
N -0.711597 0.379362 0.958831
C 0.634794 0.185783 0.651227
N 0.824058 -0.918273 -0.296219
C 0.803380 -0.669022 -1.559711
5
Frame
C -1.557396 1.014730 0.244251
N -0.712140 0.376482 0.956311
C 0.635441 0.185021 0.654475
N 0.831216 -0.917281 -0.294311
C 0.793214 -0.667338 -1.558696
5
Frame
C -1.554547 1.015703 0.240618
N -0.712858 0.373895 0.953703
C 0.636140 0.183822 0.657894
N 0.838421 -0.916129 -0.292732
C 0.783121 -0.665745 -1.557443
5
Frame
C -1.551618 1.017006 0.237293
N -0.713767 0.370809 0.951069
C 0.636646 0.182491 0.661119
N 0.845746 -0.914397 -0.291153
C 0.773204 -0.664428 -1.556277
5
Frame
C -1.548954 1.018374 0.233971
N -0.714625 0.367793 0.948551
C 0.637326 0.181312 0.664459
N 0.853195 -0.912739 -0.289895
C 0.763213 -0.663319 -1.555022
5
Frame
C -1.546212 1.019839 0.230767
N -0.715544 0.364845 0.945932
C 0.638080 0.179901 0.667898
N 0.860553 -0.911057 -0.288838
C 0.753228 -0.662173 -1.553680
5
Frame
C -1.543464 1.021799 0.228010
N -0.716566 0.361258 0.943035
C 0.638685 0.178607 0.671063
N 0.867930 -0.908904 -0.287926
C 0.743464 -0.661463 -1.552086
5
Frame
C -1.540917 1.023286 0.224962
N -0.717590 0.358027 0.940482
C 0.639382 0.177518 0.674346
N 0.875505 -0.906736 -0.287554
C 0.733626 -0.660859 -1.550131
5
Frame
C -1.538553 1.024945 0.222064
N -0.718555 0.354771 0.937663
C 0.640169 0.176072 0.677596
N 0.882994 -0.904060 -0.287098
C 0.723906 -0.660553 -1.548108
5
Frame
C -1.535929 1.026590 0.219274
N -0.719705 0.351586 0.935129
C 0.640410 0.174438 0.680566
N 0.890799 -0.901215 -0.286809
C 0.714348 -0.660275 -1.546029
5
Frame
C -1.533422 1.028424 0.216811
N -0.720897 0.348278 0.932301
C 0.640514 0.172942 0.683527
N 0.898777 -0.898373 -0.286342
C 0.704912 -0.660195 -1.544148
5
Frame
C -1.530646 1.030488 0.214465
N -0.722489 0.344994 0.929516
C 0.640616 0.170764 0.687080
N 0.906391 -0.894667 -0.286808
C 0.695999 -0.660558 -1.542092
5
Frame
C -1.528325 1.033033 0.212877
N -0.723810 0.341757 0.926447
C 0.640360 0.168661 0.690365
N 0.914450 -0.891135 -0.287468
C 0.687186 -0.661337 -1.540045
5
Frame
C -1.525787 1.035237 0.211157
N -0.724950 0.338089 0.923470
C 0.640516 0.166650 0.693207
N 0.922004 -0.887259 -0.288022
C 0.678064 -0.661796 -1.537635
5
Frame
C -1.523168 1.037819 0.209414
N -0.726577 0.334901 0.920097
C 0.640332 0.164090 0.696485
N 0.929494 -0.882816 -0.288735
C 0.669762 -0.663119 -1.535078
5
Frame
C -1.520385 1.040969 0.207788
N -0.727917 0.331153 0.916681
C 0.639940 0.161454 0.699702
N 0.936694 -0.878407 -0.289189
C 0.661506 -0.664342 -1.532797
5
Frame
C -1.518240 1.043943 0.206282
N -0.729130 0.327667 0.913384
C 0.639774 0.158705 0.702693
N 0.944321 -0.873911 -0.289455
C 0.653107 -0.665626 -1.530732
5
Frame
C -1.515368 1.047020 0.204941
N -0.730774 0.324234 0.909643
C 0.639030 0.155511 0.706290
N 0.951462 -0.869084 -0.290274
C 0.645493 -0.666947 -1.528447
5
Frame
C -1.512697 1.050200 0.203702
N -0.732238 0.320696 0.906024
C 0.638215 0.152503 0.709862
N 0.958625 -0.864007 -0.291152
C 0.637941 -0.668702 -1.526292
5
Frame
C -1.510477 1.053515 0.202639
N -0.733983 0.317346 0.902472
C 0.637616 0.149407 0.713132
N 0.966133 -0.858961 -0.292229
C 0.630562 -0.670670 -1.523891
5
Frame
C -1.507897 1.056738 0.201487
N -0.735478 0.314164 0.898646
C 0.636550 0.145739 0.716535
N 0.973287 -0.853548 -0.292826
C 0.623400 -0.672491 -1.521740
5
Frame
C -1.505415 1.060135 0.200367
N -0.737214 0.310777 0.895030
C 0.635741 0.142428 0.719984
N 0.980193 -0.847824 -0.294140
C 0.616568 -0.674954 -1.519159
5
Frame
C -1.502808 1.063921 0.199787
N -0.739002 0.307265 0.891263
C 0.634278 0.138805 0.723449
N 0.987019 -0.841908 -0.295493
C 0.610400 -0.677557 -1.516943
5
Frame
C -1.500471 1.067257 0.199173
N -0.740872 0.304058 0.887494
C 0.633269 0.135375 0.726845
N 0.994036 -0.835858 -0.296813
C 0.603936 -0.680343 -1.514658
5
Frame
C -1.497945 1.070970 0.198732
N -0.742915 0.300634 0.883576
C 0.632043 0.131649 0.729921
N 1.000944 -0.829874 -0.297963
C 0.597788 -0.682933 -1.512247
5
Frame
C -1.495393 1.074713 0.198142
N -0.745183 0.297538 0.879879
C 0.630740 0.127769 0.733102
N 1.007784 -0.823774 -0.299516
C 0.591983 -0.685836 -1.509608
5
Frame
C -1.492773 1.078380 0.197621
N -0.747353 0.294146 0.876126
C 0.629387 0.124038 0.736582
N 1.014414 -0.817531 -0.301255
C 0.586268 -0.688661 -1.507102
5
Frame
C -1.490315 1.082188 0.197299
N -0.749845 0.290625 0.872275
C 0.628230 0.120230 0.739844
N 1.020992 -0.811123 -0.302925
C 0.580899 -0.691585 -1.504539
5
Frame
C -1.487635 1.085885 0.196865
N -0.752233 0.287305 0.868458
C 0.626773 0.116199 0.743106
N 1.027418 -0.804510 -0.304488
C 0.575657 -0.694571 -1.502006
5
Frame
C -1.485089 1.089699 0.196548
N -0.754738 0.284040 0.864970
C 0.625252 0.112131 0.746203
N 1.033998 -0.797883 -0.306362
C 0.570576 -0.697707 -1.499445
5
Frame
C -1.482562 1.093562 0.196458
N -0.757277 0.280655 0.861361
C 0.623783 0.108067 0.749117
N 1.040425 -0.791075 -0.308157
C 0.565653 -0.700957 -1.496884
5
Frame
C -1.479813 1.097396 0.196379
N -0.759769 0.277314 0.857785
C 0.622047 0.103897 0.752152
N 1.046706 -0.784238 -0.310120
C 0.560878 -0.704146 -1.494322
5
Frame
C -1.477304 1.101225 0.196322
N -0.762193 0.273986 0.854372
C 0.620444 0.099761 0.755122
N 1.052949 -0.777232 -0.312305
C 0.556177 -0.707541 -1.491654
5
Frame
C -1.474693 1.104886 0.196390
N -0.764615 0.270830 0.851006
C 0.618709 0.095491 0.757990
N 1.059025 -0.770005 -0.314661
C 0.551673 -0.711022 -1.488885
5
Frame
C -1.472095 1.108626 0.196504
N -0.767022 0.267644 0.847670
C 0.617056 0.091390 0.760894
N 1.064935 -0.762704 -0.317129
C 0.547247 -0.714799 -1.486118
5
Frame
C -1.469737 1.112386 0.196868
N -0.769335 0.264644 0.844398
C 0.615205 0.086843 0.763567
N 1.070961 -0.755335 -0.319691
C 0.543053 -0.718401 -1.483335
5
Frame
C -1.467003 1.115962 0.196981
N -0.771717 0.261484 0.841054
C 0.613423 0.082469 0.766511
N 1.076708 -0.747835 -0.322118
C 0.538762 -0.721962 -1.480642
5
Frame
C -1.464389 1.119503 0.197349
N -0.774156 0.258505 0.837783
C 0.611508 0.078183 0.769173
N 1.082481 -0.740153 -0.324575
C 0.534752 -0.725938 -1.477958
5
Frame
C -1.461781 1.123059 0.197822
N -0.776489 0.255359 0.834614
C 0.609603 0.073894 0.771810
N 1.088030 -0.732275 -0.327142
C 0.530857 -0.729961 -1.475352
5
Frame
C -1.459275 1.126525 0.198334
N -0.778857 0.252456 0.831600
C 0.607678 0.069469 0.774349
N 1.093571 -0.724347 -0.330002
C 0.527127 -0.734048 -1.472547
5
Frame
C -1.456727 1.130159 0.199059
N -0.781123 0.249512 0.828365
C 0.605629 0.065032 0.776923
N 1.098861 -0.716342 -0.332691
C 0.523634 -0.738329 -1.469938
5
Frame
C -1.454203 1.133721 0.199742
N -0.783440 0.246574 0.825223
C 0.603587 0.060538 0.779533
N 1.104213 -0.708325 -0.335474
C 0.520144 -0.742499 -1.467324
5
Frame
C -1.451651 1.137274 0.200487
N -0.785556 0.243667 0.822115
C 0.601516 0.056081 0.782147
N 1.109234 -0.700126 -0.338366
C 0.516790 -0.746906 -1.464700
5
Frame
C -1.449262 1.141033 0.201492
N -0.787902 0.240740 0.819129
C 0.599398 0.051582 0.784565
N 1.114220 -0.691960 -0.341490
C 0.513910 -0.751431 -1.462028
5
Frame
C -1.446689 1.144627 0.202552
N -0.790141 0.237941 0.815918
C 0.597030 0.047076 0.787007
N 1.119231 -0.683749 -0.344313
C 0.510970 -0.755954 -1.459512
5
Frame
C -1.444124 1.148270 0.203683
N -0.792372 0.235154 0.812890
C 0.594635 0.042515 0.789383
N 1.124087 -0.675472 -0.347342
C 0.508213 -0.760547 -1.456975
5
Frame
C -1.441539 1.151834 0.204834
N -0.794549 0.232324 0.809897
C 0.592216 0.037966 0.791681
N 1.128746 -0.667065 -0.350475
C 0.505604 -0.765163 -1.454315
5
Frame
C -1.438827 1.155420 0.205927
N -0.796750 0.229447 0.806776
C 0.589724 0.033351 0.794090
N 1.133348 -0.658639 -0.353365
C 0.503026 -0.769708 -1.451819
5
Frame
C -1.436299 1.159163 0.207244
N -0.798997 0.226603 0.803815
C 0.587143 0.028738 0.796402
N 1.137889 -0.650281 -0.356614
C 0.500829 -0.774379 -1.449250
5
Frame
C -1.433781 1.162771 0.208628
N -0.801316 0.223850 0.800755
C 0.584700 0.024134 0.798543
N 1.142463 -0.641785 -0.359597
C 0.498544 -0.779150 -1.446740
5
Frame
C -1.431275 1.166415 0.210061
N -0.803446 0.220960 0.797814
C 0.582183 0.019589 0.800725
N 1.146703 -0.633172 -0.362824
C 0.496488 -0.783994 -1.444200
5
Frame
C -1.428855 1.170145 0.211424
N -0.805560 0.218069 0.794814
C 0.579692 0.014958 0.803004
N 1.150917 -0.624545 -0.365929
C 0.494509 -0.788852 -1.441747
5
Frame
C -1.426438 1.173757 0.212938
N -0.807797 0.215266 0.791705
C 0.577095 0.010317 0.805165
N 1.155035 -0.615840 -0.368989
C 0.492854 -0.793746 -1.439261
5
Frame
C -1.424115 1.177538 0.214741
N -0.809929 0.212477 0.788784
C 0.574615 0.005588 0.807247
N 1.158891 -0.607070 -0.372198
C 0.491339 -0.798804 -1.437024
5
Frame
C -1.421750 1.181165 0.216483
N -0.812121 0.209610 0.785753
C 0.571994 0.000928 0.809254
N 1.162799 -0.598259 -0.375347
C 0.489930 -0.803738 -1.434598
5
Frame
C -1.419340 1.184875 0.218358
N -0.814343 0.206801 0.782834
C 0.569244 -0.003818 0.811149
N 1.166450 -0.589428 -0.378576
C 0.488899 -0.808747 -1.432228
5
Frame
C -1.416982 1.188492 0.220186
N -0.816781 0.204121 0.779798
C 0.566545 -0.008702 0.813055
N 1.170219 -0.580608 -0.381710
C 0.487969 -0.813639 -1.429792
5
Frame
C -1.414784 1.192119 0.222209
N -0.819056 0.201344 0.776727
C 0.563795 -0.013490 0.815035
N 1.173739 -0.571676 -0.384882
C 0.487341 -0.818655 -1.427552
5
Frame
C -1.412543 1.195672 0.224172
N -0.821317 0.198500 0.773751
C 0.561016 -0.018116 0.816930
N 1.177133 -0.562612 -0.388002
C 0.486815 -0.823820 -1.425312
5
Frame
C -1.410614 1.199191 0.226254
N -0.823562 0.195763 0.770845
C 0.558270 -0.023036 0.818698
N 1.180386 -0.553391 -0.391047
C 0.486698 -0.828917 -1.423198
5
Frame
C -1.408587 1.202719 0.228657
N -0.826025 0.193028 0.767648
C 0.555230 -0.027869 0.820511
N 1.183765 -0.544380 -0.393959
C 0.486874 -0.833905 -1.421290
5
Frame
C -1.406500 1.206223 0.230974
N -0.828473 0.190188 0.764696
C 0.552188 -0.032724 0.822150
N 1.186588 -0.535146 -0.396857
C 0.487541 -0.838962 -1.419378
5
Frame
C -1.404731 1.209822 0.233725
N -0.831104 0.187429 0.761526
C 0.549204 -0.037889 0.823760
N 1.189630 -0.526134 -0.399801
C 0.488438 -0.843667 -1.417600
5
Frame
C -1.403070 1.213257 0.236256
N -0.833629 0.184460 0.758369
C 0.546050 -0.042819 0.825295
N 1.192345 -0.516870 -0.402493
C 0.489841 -0.848482 -1.415780
5
Frame
C -1.401301 1.216457 0.239144
N -0.836128 0.181616 0.755052
C 0.542539 -0.047782 0.826816
N 1.194973 -0.507644 -0.405052
C 0.491571 -0.853113 -1.414269
5
Frame
C -1.399909 1.219566 0.242056
N -0.838826 0.178672 0.751609
C 0.539015 -0.052606 0.828382
N 1.197652 -0.498453 -0.407497
C 0.493848 -0.857657 -1.412802
5
Frame
C -1.398750 1.222481 0.245265
N -0.841504 0.175606 0.747975
C 0.535466 -0.057547 0.829684
N 1.200074 -0.489170 -0.409515
C 0.496630 -0.861861 -1.411585
5
Frame
C -1.397783 1.225369 0.248451
N -0.844484 0.172550 0.744267
C 0.531641 -0.062635 0.831020
N 1.202295 -0.480155 -0.411118
C 0.500395 -0.865629 -1.410695
5
Frame
C -1.396957 1.228073 0.251965
N -0.847537 0.169359 0.740251
C 0.527422 -0.068002 0.832365
N 1.204257 -0.471620 -0.412336
C 0.505037 -0.868323 -1.410205
5
Frame
C -1.396305 1.230578 0.255699
N -0.850857 0.165790 0.735885
C 0.523185 -0.073389 0.833501
N 1.206160 -0.463485 -0.412985
C 0.510205 -0.870018 -1.409924
5
Frame
C -1.396225 1.232816 0.259624
N -0.854298 0.162310 0.731214
C 0.518890 -0.078546 0.834919
N 1.208138 -0.455841 -0.412903
C 0.516044 -0.871274 -1.410527
5
Frame
C -1.396159 1.234727 0.263547
N -0.857837 0.158768 0.726657
C 0.514038 -0.083835 0.836345
N 1.209816 -0.449312 -0.412522
C 0.522858 -0.870892 -1.411536
5
Frame
C -1.396677 1.236272 0.267572
N -0.861076 0.154981 0.721643
C 0.509461 -0.089266 0.837218
N 1.211497 -0.443129 -0.411418
C 0.529674 -0.869415 -1.412365
5
Frame
C -1.396821 1.238270 0.271757
N -0.864721 0.151206 0.716979
C 0.504922 -0.094973 0.838255
N 1.212962 -0.438216 -0.410144
C 0.536697 -0.866861 -1.414039
5
Frame
C -1.397337 1.240067 0.276202
N -0.867995 0.147328 0.711890
C 0.500625 -0.100432 0.839411
N 1.214311 -0.433788 -0.408239
C 0.543584 -0.863783 -1.416308
5
Frame
C -1.397642 1.241358 0.280084
N -0.871642 0.143979 0.707056
C 0.495666 -0.105751 0.840386
N 1.215801 -0.430468 -0.406365
C 0.551141 -0.859766 -1.418070
5
Frame
C -1.398333 1.241720 0.284323
N -0.875131 0.140347 0.701961
C 0.491363 -0.110998 0.841428
N 1.217543 -0.426539 -0.404368
C 0.558025 -0.855244 -1.420145
5
Frame
C -1.399196 1.242349 0.287760
N -0.878144 0.136513 0.697524
C 0.486933 -0.116550 0.842606
N 1.218935 -0.423456 -0.402082
C 0.565055 -0.849625 -1.422537
5
Frame
C -1.400344 1.241832 0.290909
N -0.880870 0.132186 0.693734
C 0.483053 -0.122275 0.843604
N 1.220441 -0.419509 -0.400050
C 0.571402 -0.843066 -1.424881
5
Frame
C -1.401701 1.240511 0.293791
N -0.883831 0.127730 0.690376
C 0.479393 -0.127390 0.844788
N 1.222109 -0.415817 -0.398109
C 0.577759 -0.835896 -1.427502
5
Frame
C -1.403629 1.237583 0.295152
N -0.886454 0.122713 0.688347
C 0.476409 -0.131910 0.846372
N 1.223992 -0.411369 -0.396377
C 0.583403 -0.827868 -1.430113
5
Frame
C -1.406749 1.232512 0.295179
N -0.888749 0.117526 0.687549
C 0.474749 -0.134951 0.847541
N 1.225941 -0.406268 -0.394807
C 0.588440 -0.819577 -1.432010
5
Frame
C -1.411117 1.225171 0.290708
N -0.890133 0.113397 0.689120
C 0.474628 -0.135282 0.849318
N 1.227873 -0.401080 -0.393640
C 0.592227 -0.812682 -1.431846
5
Frame
C -1.414800 1.217819 0.282461
N -0.889628 0.112286 0.692828
C 0.477112 -0.129990 0.850737
N 1.229079 -0.397284 -0.393008
C 0.591627 -0.812896 -1.429051
